Circuit: * C:\Users\modekangkang\Desktop\EE_Lab1\Variants\Var31.asc

WARNING: Node NC_02 is floating.

WARNING: Less than two connections to node NC_01.  This node is used by R6.
WARNING: Less than two connections to node NC_02.  This node is used by R6.
Direct Newton iteration for .op point succeeded.

Date: Tue Sep 22 23:08:39 2020
Total elapsed time: 0.098 seconds.

tnom = 27
temp = 27
method = modified trap
totiter = 2099
traniter = 2096
tranpoints = 1049
accept = 1049
rejected = 0
matrix size = 9
fillins = 3
solver = Normal
Matrix Compiler1: 488 bytes object code size  0.1/0.1/[0.1]
Matrix Compiler2: 675 bytes object code size  0.1/0.1/[0.1]

